<configuration>

<input>
<net-file value="ALMS_3_Lane_Highway_No_Diversions_1.net.xml"/>
<route-files value="ALMS_3_Lane_Highway_No_Diversions_1.rou.xml"/>
</input>
<time>
<begin value="0"/>
<end value="2000"/>
</time>
</configuration>